MODEL 1
REMARK VINA RESULT:      -5.9      0.000      0.000
REMARK  6 active torsions:
REMARK  status: ('A' for Active; 'I' for Inactive)
REMARK    1  A    between atoms: O_2  and  C_7 
REMARK    2  A    between atoms: O_3  and  C_8 
REMARK    3  A    between atoms: O_4  and  C_10 
REMARK    4  A    between atoms: O_5  and  C_11 
REMARK    5  A    between atoms: O_6  and  C_12 
REMARK    6  A    between atoms: C_9  and  C_12 
ROOT
HETATM    1  O   LIG     1     -51.176  46.682  26.459  1.00  0.00    -0.349 OA
HETATM    2  C   LIG     1     -52.697  48.281  25.456  1.00  0.00     0.180 C 
HETATM    3  C   LIG     1     -52.849  47.378  24.230  1.00  0.00     0.183 C 
HETATM    4  C   LIG     1     -51.339  48.061  26.126  1.00  0.00     0.179 C 
HETATM    5  C   LIG     1     -52.495  45.929  24.563  1.00  0.00     0.204 C 
HETATM    6  C   LIG     1     -51.163  45.839  25.309  1.00  0.00     0.288 C 
ENDROOT
BRANCH   4   7
HETATM    7  C   LIG     1     -51.210  48.865  27.416  1.00  0.00     0.198 C 
BRANCH   7   8
HETATM    8  O   LIG     1     -50.605  48.044  28.399  1.00  0.00    -0.398 OA
HETATM    9  H   LIG     1     -49.688  47.879  28.121  1.00  0.00     0.209 HD
ENDBRANCH   7   8
ENDBRANCH   4   7
BRANCH   6  10
HETATM   10  O   LIG     1     -50.973  44.483  25.707  1.00  0.00    -0.369 OA
HETATM   11  H   LIG     1     -50.343  44.066  25.094  1.00  0.00     0.212 HD
ENDBRANCH   6  10
BRANCH   2  12
HETATM   12  O   LIG     1     -52.809  49.643  25.054  1.00  0.00    -0.390 OA
HETATM   13  H   LIG     1     -52.644  49.689  24.096  1.00  0.00     0.210 HD
ENDBRANCH   2  12
BRANCH   5  14
HETATM   14  O   LIG     1     -52.382  45.180  23.354  1.00  0.00    -0.388 OA
HETATM   15  H   LIG     1     -51.641  44.556  23.454  1.00  0.00     0.210 HD
ENDBRANCH   5  14
BRANCH   3  16
HETATM   16  O   LIG     1     -54.208  47.448  23.797  1.00  0.00    -0.390 OA
HETATM   17  H   LIG     1     -54.382  48.367  23.530  1.00  0.00     0.210 HD
ENDBRANCH   3  16
TORSDOF 6
ENDMDL
MODEL 2
REMARK VINA RESULT:      -5.6      9.000     10.925
REMARK  6 active torsions:
REMARK  status: ('A' for Active; 'I' for Inactive)
REMARK    1  A    between atoms: O_2  and  C_7 
REMARK    2  A    between atoms: O_3  and  C_8 
REMARK    3  A    between atoms: O_4  and  C_10 
REMARK    4  A    between atoms: O_5  and  C_11 
REMARK    5  A    between atoms: O_6  and  C_12 
REMARK    6  A    between atoms: C_9  and  C_12 
ROOT
HETATM    1  O   LIG     1     -51.211  57.267  31.239  1.00  0.00    -0.349 OA
HETATM    2  C   LIG     1     -52.027  55.145  30.400  1.00  0.00     0.180 C 
HETATM    3  C   LIG     1     -51.014  54.402  31.271  1.00  0.00     0.183 C 
HETATM    4  C   LIG     1     -51.517  56.544  30.046  1.00  0.00     0.179 C 
HETATM    5  C   LIG     1     -50.559  55.264  32.448  1.00  0.00     0.204 C 
HETATM    6  C   LIG     1     -50.157  56.666  31.988  1.00  0.00     0.288 C 
ENDROOT
BRANCH   4   7
HETATM    7  C   LIG     1     -52.560  57.347  29.276  1.00  0.00     0.198 C 
BRANCH   7   8
HETATM    8  O   LIG     1     -52.660  56.817  27.966  1.00  0.00    -0.398 OA
HETATM    9  H   LIG     1     -51.761  56.768  27.600  1.00  0.00     0.209 HD
ENDBRANCH   7   8
ENDBRANCH   4   7
BRANCH   6  10
HETATM   10  O   LIG     1     -49.884  57.448  33.150  1.00  0.00    -0.369 OA
HETATM   11  H   LIG     1     -50.586  58.114  33.246  1.00  0.00     0.212 HD
ENDBRANCH   6  10
BRANCH   2  12
HETATM   12  O   LIG     1     -52.248  54.407  29.201  1.00  0.00    -0.390 OA
HETATM   13  H   LIG     1     -53.196  54.195  29.149  1.00  0.00     0.210 HD
ENDBRANCH   2  12
BRANCH   5  14
HETATM   14  O   LIG     1     -49.427  54.656  33.070  1.00  0.00    -0.388 OA
HETATM   15  H   LIG     1     -48.955  55.343  33.573  1.00  0.00     0.210 HD
ENDBRANCH   5  14
BRANCH   3  16
HETATM   16  O   LIG     1     -51.640  53.217  31.764  1.00  0.00    -0.390 OA
HETATM   17  H   LIG     1     -51.687  52.584  31.026  1.00  0.00     0.210 HD
ENDBRANCH   3  16
TORSDOF 6
ENDMDL
MODEL 3
REMARK VINA RESULT:      -5.6      2.193      2.606
REMARK  6 active torsions:
REMARK  status: ('A' for Active; 'I' for Inactive)
REMARK    1  A    between atoms: O_2  and  C_7 
REMARK    2  A    between atoms: O_3  and  C_8 
REMARK    3  A    between atoms: O_4  and  C_10 
REMARK    4  A    between atoms: O_5  and  C_11 
REMARK    5  A    between atoms: O_6  and  C_12 
REMARK    6  A    between atoms: C_9  and  C_12 
ROOT
HETATM    1  O   LIG     1     -54.093  47.670  27.613  1.00  0.00    -0.349 OA
HETATM    2  C   LIG     1     -52.605  48.773  26.049  1.00  0.00     0.180 C 
HETATM    3  C   LIG     1     -53.019  47.792  24.951  1.00  0.00     0.183 C 
HETATM    4  C   LIG     1     -52.755  48.134  27.432  1.00  0.00     0.179 C 
HETATM    5  C   LIG     1     -54.380  47.165  25.254  1.00  0.00     0.204 C 
HETATM    6  C   LIG     1     -54.445  46.642  26.689  1.00  0.00     0.288 C 
ENDROOT
BRANCH   4   7
HETATM    7  C   LIG     1     -52.458  49.131  28.548  1.00  0.00     0.198 C 
BRANCH   7   8
HETATM    8  O   LIG     1     -52.023  48.413  29.689  1.00  0.00    -0.398 OA
HETATM    9  H   LIG     1     -52.297  48.915  30.475  1.00  0.00     0.209 HD
ENDBRANCH   7   8
ENDBRANCH   4   7
BRANCH   6  10
HETATM   10  O   LIG     1     -55.780  46.206  26.939  1.00  0.00    -0.369 OA
HETATM   11  H   LIG     1     -55.838  45.900  27.860  1.00  0.00     0.212 HD
ENDBRANCH   6  10
BRANCH   2  12
HETATM   12  O   LIG     1     -51.247  49.155  25.851  1.00  0.00    -0.390 OA
HETATM   13  H   LIG     1     -51.167  50.101  26.061  1.00  0.00     0.210 HD
ENDBRANCH   2  12
BRANCH   5  14
HETATM   14  O   LIG     1     -54.605  46.069  24.368  1.00  0.00    -0.388 OA
HETATM   15  H   LIG     1     -53.879  46.053  23.720  1.00  0.00     0.210 HD
ENDBRANCH   5  14
BRANCH   3  16
HETATM   16  O   LIG     1     -53.091  48.512  23.720  1.00  0.00    -0.390 OA
HETATM   17  H   LIG     1     -53.435  49.400  23.922  1.00  0.00     0.210 HD
ENDBRANCH   3  16
TORSDOF 6
ENDMDL
MODEL 4
REMARK VINA RESULT:      -5.5      1.768      3.470
REMARK  6 active torsions:
REMARK  status: ('A' for Active; 'I' for Inactive)
REMARK    1  A    between atoms: O_2  and  C_7 
REMARK    2  A    between atoms: O_3  and  C_8 
REMARK    3  A    between atoms: O_4  and  C_10 
REMARK    4  A    between atoms: O_5  and  C_11 
REMARK    5  A    between atoms: O_6  and  C_12 
REMARK    6  A    between atoms: C_9  and  C_12 
ROOT
HETATM    1  O   LIG     1     -54.133  48.064  25.422  1.00  0.00    -0.349 OA
HETATM    2  C   LIG     1     -52.304  46.494  25.164  1.00  0.00     0.180 C 
HETATM    3  C   LIG     1     -53.299  45.333  25.111  1.00  0.00     0.183 C 
HETATM    4  C   LIG     1     -52.876  47.663  25.969  1.00  0.00     0.179 C 
HETATM    5  C   LIG     1     -54.689  45.814  24.696  1.00  0.00     0.204 C 
HETATM    6  C   LIG     1     -55.119  47.038  25.505  1.00  0.00     0.288 C 
ENDROOT
BRANCH   4   7
HETATM    7  C   LIG     1     -51.952  48.875  25.938  1.00  0.00     0.198 C 
BRANCH   7   8
HETATM    8  O   LIG     1     -52.643  49.954  25.334  1.00  0.00    -0.398 OA
HETATM    9  H   LIG     1     -52.774  50.637  26.013  1.00  0.00     0.209 HD
ENDBRANCH   7   8
ENDBRANCH   4   7
BRANCH   6  10
HETATM   10  O   LIG     1     -56.353  47.510  24.966  1.00  0.00    -0.369 OA
HETATM   11  H   LIG     1     -56.875  47.901  25.687  1.00  0.00     0.212 HD
ENDBRANCH   6  10
BRANCH   2  12
HETATM   12  O   LIG     1     -51.094  46.050  25.771  1.00  0.00    -0.390 OA
HETATM   13  H   LIG     1     -50.456  46.783  25.739  1.00  0.00     0.210 HD
ENDBRANCH   2  12
BRANCH   5  14
HETATM   14  O   LIG     1     -55.638  44.772  24.922  1.00  0.00    -0.388 OA
HETATM   15  H   LIG     1     -55.167  43.922  24.879  1.00  0.00     0.210 HD
ENDBRANCH   5  14
BRANCH   3  16
HETATM   16  O   LIG     1     -52.819  44.385  24.157  1.00  0.00    -0.390 OA
HETATM   17  H   LIG     1     -52.686  43.542  24.626  1.00  0.00     0.210 HD
ENDBRANCH   3  16
TORSDOF 6
ENDMDL
MODEL 5
REMARK VINA RESULT:      -5.4      2.069      4.534
REMARK  6 active torsions:
REMARK  status: ('A' for Active; 'I' for Inactive)
REMARK    1  A    between atoms: O_2  and  C_7 
REMARK    2  A    between atoms: O_3  and  C_8 
REMARK    3  A    between atoms: O_4  and  C_10 
REMARK    4  A    between atoms: O_5  and  C_11 
REMARK    5  A    between atoms: O_6  and  C_12 
REMARK    6  A    between atoms: C_9  and  C_12 
ROOT
HETATM    1  O   LIG     1     -53.114  48.025  23.957  1.00  0.00    -0.349 OA
HETATM    2  C   LIG     1     -54.255  46.001  24.648  1.00  0.00     0.180 C 
HETATM    3  C   LIG     1     -54.018  46.359  26.116  1.00  0.00     0.183 C 
HETATM    4  C   LIG     1     -53.171  46.611  23.758  1.00  0.00     0.179 C 
HETATM    5  C   LIG     1     -53.778  47.859  26.287  1.00  0.00     0.204 C 
HETATM    6  C   LIG     1     -52.743  48.374  25.289  1.00  0.00     0.288 C 
ENDROOT
BRANCH   4   7
HETATM    7  C   LIG     1     -53.450  46.366  22.279  1.00  0.00     0.198 C 
BRANCH   7   8
HETATM    8  O   LIG     1     -52.806  45.166  21.891  1.00  0.00    -0.398 OA
HETATM    9  H   LIG     1     -53.396  44.700  21.275  1.00  0.00     0.209 HD
ENDBRANCH   7   8
ENDBRANCH   4   7
BRANCH   6  10
HETATM   10  O   LIG     1     -52.680  49.794  25.414  1.00  0.00    -0.369 OA
HETATM   11  H   LIG     1     -51.795  50.090  25.139  1.00  0.00     0.212 HD
ENDBRANCH   6  10
BRANCH   2  12
HETATM   12  O   LIG     1     -54.243  44.583  24.501  1.00  0.00    -0.390 OA
HETATM   13  H   LIG     1     -53.584  44.357  23.822  1.00  0.00     0.210 HD
ENDBRANCH   2  12
BRANCH   5  14
HETATM   14  O   LIG     1     -53.294  48.113  27.606  1.00  0.00    -0.388 OA
HETATM   15  H   LIG     1     -53.699  47.463  28.206  1.00  0.00     0.210 HD
ENDBRANCH   5  14
BRANCH   3  16
HETATM   16  O   LIG     1     -55.177  45.974  26.857  1.00  0.00    -0.390 OA
HETATM   17  H   LIG     1     -54.926  45.219  27.418  1.00  0.00     0.210 HD
ENDBRANCH   3  16
TORSDOF 6
ENDMDL
MODEL 6
REMARK VINA RESULT:      -5.4      2.788      3.640
REMARK  6 active torsions:
REMARK  status: ('A' for Active; 'I' for Inactive)
REMARK    1  A    between atoms: O_2  and  C_7 
REMARK    2  A    between atoms: O_3  and  C_8 
REMARK    3  A    between atoms: O_4  and  C_10 
REMARK    4  A    between atoms: O_5  and  C_11 
REMARK    5  A    between atoms: O_6  and  C_12 
REMARK    6  A    between atoms: C_9  and  C_12 
ROOT
HETATM    1  O   LIG     1     -53.562  46.540  24.374  1.00  0.00    -0.349 OA
HETATM    2  C   LIG     1     -54.484  46.716  26.609  1.00  0.00     0.180 C 
HETATM    3  C   LIG     1     -55.685  45.867  26.188  1.00  0.00     0.183 C 
HETATM    4  C   LIG     1     -53.901  47.464  25.409  1.00  0.00     0.179 C 
HETATM    5  C   LIG     1     -55.358  45.014  24.963  1.00  0.00     0.204 C 
HETATM    6  C   LIG     1     -54.700  45.848  23.864  1.00  0.00     0.288 C 
ENDROOT
BRANCH   4   7
HETATM    7  C   LIG     1     -52.632  48.225  25.780  1.00  0.00     0.198 C 
BRANCH   7   8
HETATM    8  O   LIG     1     -52.736  49.546  25.280  1.00  0.00    -0.398 OA
HETATM    9  H   LIG     1     -51.903  50.004  25.483  1.00  0.00     0.209 HD
ENDBRANCH   7   8
ENDBRANCH   4   7
BRANCH   6  10
HETATM   10  O   LIG     1     -54.297  44.962  22.820  1.00  0.00    -0.369 OA
HETATM   11  H   LIG     1     -54.858  45.126  22.043  1.00  0.00     0.212 HD
ENDBRANCH   6  10
BRANCH   2  12
HETATM   12  O   LIG     1     -54.895  47.656  27.597  1.00  0.00    -0.390 OA
HETATM   13  H   LIG     1     -54.556  48.530  27.339  1.00  0.00     0.210 HD
ENDBRANCH   2  12
BRANCH   5  14
HETATM   14  O   LIG     1     -56.563  44.455  24.440  1.00  0.00    -0.388 OA
HETATM   15  H   LIG     1     -56.418  43.503  24.303  1.00  0.00     0.210 HD
ENDBRANCH   5  14
BRANCH   3  16
HETATM   16  O   LIG     1     -56.029  45.016  27.282  1.00  0.00    -0.390 OA
HETATM   17  H   LIG     1     -56.462  44.227  26.912  1.00  0.00     0.210 HD
ENDBRANCH   3  16
TORSDOF 6
ENDMDL
MODEL 7
REMARK VINA RESULT:      -5.2      1.314      4.525
REMARK  6 active torsions:
REMARK  status: ('A' for Active; 'I' for Inactive)
REMARK    1  A    between atoms: O_2  and  C_7 
REMARK    2  A    between atoms: O_3  and  C_8 
REMARK    3  A    between atoms: O_4  and  C_10 
REMARK    4  A    between atoms: O_5  and  C_11 
REMARK    5  A    between atoms: O_6  and  C_12 
REMARK    6  A    between atoms: C_9  and  C_12 
ROOT
HETATM    1  O   LIG     1     -53.615  47.950  24.730  1.00  0.00    -0.349 OA
HETATM    2  C   LIG     1     -52.448  45.835  24.939  1.00  0.00     0.180 C 
HETATM    3  C   LIG     1     -51.198  46.565  25.433  1.00  0.00     0.183 C 
HETATM    4  C   LIG     1     -53.287  46.744  24.038  1.00  0.00     0.179 C 
HETATM    5  C   LIG     1     -51.550  47.937  26.009  1.00  0.00     0.204 C 
HETATM    6  C   LIG     1     -52.462  48.719  25.064  1.00  0.00     0.288 C 
ENDROOT
BRANCH   4   7
HETATM    7  C   LIG     1     -54.596  46.079  23.627  1.00  0.00     0.198 C 
BRANCH   7   8
HETATM    8  O   LIG     1     -54.367  45.318  22.455  1.00  0.00    -0.398 OA
HETATM    9  H   LIG     1     -53.954  45.904  21.799  1.00  0.00     0.209 HD
ENDBRANCH   7   8
ENDBRANCH   4   7
BRANCH   6  10
HETATM   10  O   LIG     1     -52.858  49.918  25.729  1.00  0.00    -0.369 OA
HETATM   11  H   LIG     1     -52.281  50.050  26.500  1.00  0.00     0.212 HD
ENDBRANCH   6  10
BRANCH   2  12
HETATM   12  O   LIG     1     -52.058  44.676  24.207  1.00  0.00    -0.390 OA
HETATM   13  H   LIG     1     -51.211  44.868  23.770  1.00  0.00     0.210 HD
ENDBRANCH   2  12
BRANCH   5  14
HETATM   14  O   LIG     1     -50.353  48.690  26.201  1.00  0.00    -0.388 OA
HETATM   15  H   LIG     1     -50.593  49.534  26.621  1.00  0.00     0.210 HD
ENDBRANCH   5  14
BRANCH   3  16
HETATM   16  O   LIG     1     -50.592  45.764  26.448  1.00  0.00    -0.390 OA
HETATM   17  H   LIG     1     -50.672  46.249  27.288  1.00  0.00     0.210 HD
ENDBRANCH   3  16
TORSDOF 6
ENDMDL
MODEL 8
REMARK VINA RESULT:      -5.2      1.475      3.498
REMARK  6 active torsions:
REMARK  status: ('A' for Active; 'I' for Inactive)
REMARK    1  A    between atoms: O_2  and  C_7 
REMARK    2  A    between atoms: O_3  and  C_8 
REMARK    3  A    between atoms: O_4  and  C_10 
REMARK    4  A    between atoms: O_5  and  C_11 
REMARK    5  A    between atoms: O_6  and  C_12 
REMARK    6  A    between atoms: C_9  and  C_12 
ROOT
HETATM    1  O   LIG     1     -53.331  48.007  23.703  1.00  0.00    -0.349 OA
HETATM    2  C   LIG     1     -51.936  46.340  24.775  1.00  0.00     0.180 C 
HETATM    3  C   LIG     1     -52.488  45.264  23.838  1.00  0.00     0.183 C 
HETATM    4  C   LIG     1     -52.954  47.465  24.969  1.00  0.00     0.179 C 
HETATM    5  C   LIG     1     -53.054  45.883  22.560  1.00  0.00     0.204 C 
HETATM    6  C   LIG     1     -53.987  47.052  22.872  1.00  0.00     0.288 C 
ENDROOT
BRANCH   4   7
HETATM    7  C   LIG     1     -52.382  48.605  25.806  1.00  0.00     0.198 C 
BRANCH   7   8
HETATM    8  O   LIG     1     -52.770  49.834  25.219  1.00  0.00    -0.398 OA
HETATM    9  H   LIG     1     -53.728  49.795  25.060  1.00  0.00     0.209 HD
ENDBRANCH   7   8
ENDBRANCH   4   7
BRANCH   6  10
HETATM   10  O   LIG     1     -54.358  47.661  21.637  1.00  0.00    -0.369 OA
HETATM   11  H   LIG     1     -54.060  47.090  20.909  1.00  0.00     0.212 HD
ENDBRANCH   6  10
BRANCH   2  12
HETATM   12  O   LIG     1     -51.634  45.754  26.038  1.00  0.00    -0.390 OA
HETATM   13  H   LIG     1     -51.127  46.402  26.556  1.00  0.00     0.210 HD
ENDBRANCH   2  12
BRANCH   5  14
HETATM   14  O   LIG     1     -53.797  44.895  21.845  1.00  0.00    -0.388 OA
HETATM   15  H   LIG     1     -53.255  44.089  21.793  1.00  0.00     0.210 HD
ENDBRANCH   5  14
BRANCH   3  16
HETATM   16  O   LIG     1     -51.419  44.378  23.505  1.00  0.00    -0.390 OA
HETATM   17  H   LIG     1     -50.651  44.925  23.263  1.00  0.00     0.210 HD
ENDBRANCH   3  16
TORSDOF 6
ENDMDL
MODEL 9
REMARK VINA RESULT:      -5.1      2.323      3.480
REMARK  6 active torsions:
REMARK  status: ('A' for Active; 'I' for Inactive)
REMARK    1  A    between atoms: O_2  and  C_7 
REMARK    2  A    between atoms: O_3  and  C_8 
REMARK    3  A    between atoms: O_4  and  C_10 
REMARK    4  A    between atoms: O_5  and  C_11 
REMARK    5  A    between atoms: O_6  and  C_12 
REMARK    6  A    between atoms: C_9  and  C_12 
ROOT
HETATM    1  O   LIG     1     -52.761  46.229  26.089  1.00  0.00    -0.349 OA
HETATM    2  C   LIG     1     -52.825  46.158  23.666  1.00  0.00     0.180 C 
HETATM    3  C   LIG     1     -54.277  46.640  23.684  1.00  0.00     0.183 C 
HETATM    4  C   LIG     1     -52.488  45.405  24.955  1.00  0.00     0.179 C 
HETATM    5  C   LIG     1     -54.603  47.366  24.988  1.00  0.00     0.204 C 
HETATM    6  C   LIG     1     -54.142  46.562  26.203  1.00  0.00     0.288 C 
ENDROOT
BRANCH   4   7
HETATM    7  C   LIG     1     -51.014  45.016  25.012  1.00  0.00     0.198 C 
BRANCH   7   8
HETATM    8  O   LIG     1     -50.610  44.978  26.368  1.00  0.00    -0.398 OA
HETATM    9  H   LIG     1     -51.352  44.624  26.887  1.00  0.00     0.209 HD
ENDBRANCH   7   8
ENDBRANCH   4   7
BRANCH   6  10
HETATM   10  O   LIG     1     -54.350  47.362  27.366  1.00  0.00    -0.369 OA
HETATM   11  H   LIG     1     -54.460  48.288  27.088  1.00  0.00     0.212 HD
ENDBRANCH   6  10
BRANCH   2  12
HETATM   12  O   LIG     1     -52.629  45.296  22.550  1.00  0.00    -0.390 OA
HETATM   13  H   LIG     1     -52.517  45.850  21.758  1.00  0.00     0.210 HD
ENDBRANCH   2  12
BRANCH   5  14
HETATM   14  O   LIG     1     -56.015  47.554  25.085  1.00  0.00    -0.388 OA
HETATM   15  H   LIG     1     -56.227  48.431  24.723  1.00  0.00     0.210 HD
ENDBRANCH   5  14
BRANCH   3  16
HETATM   16  O   LIG     1     -54.459  47.533  22.584  1.00  0.00    -0.390 OA
HETATM   17  H   LIG     1     -55.278  48.033  22.747  1.00  0.00     0.210 HD
ENDBRANCH   3  16
TORSDOF 6
ENDMDL
