MODEL 1
REMARK VINA RESULT:      -7.7      0.000      0.000
REMARK  7 active torsions:
REMARK  status: ('A' for Active; 'I' for Inactive)
REMARK    1  A    between atoms: C4_4  and  C7_7 
REMARK       I    between atoms: C7_7  and  N1_9 
REMARK    2  A    between atoms: N1_9  and  C8_10 
REMARK    3  A    between atoms: C8_10  and  N2_12 
REMARK    4  A    between atoms: N2_12  and  C9_13 
REMARK    5  A    between atoms: C14_18  and  N3_19 
REMARK    6  A    between atoms: N3_19  and  C15_20 
REMARK       I    between atoms: N4_22  and  C16_23 
REMARK    7  A    between atoms: C16_23  and  C17_25 
ROOT
ATOM      1  C9  <0> d          31.384  69.403 -21.928  0.00  0.00     0.061 A 
ATOM      2  C10 <0> d          32.507  70.164 -21.642  0.00  0.00     0.032 A 
ATOM      3  C11 <0> d          33.517  70.283 -22.579  0.00  0.00     0.002 A 
ATOM      4  C12 <0> d          33.408  69.654 -23.805  0.00  0.00     0.002 A 
ATOM      5  C13 <0> d          32.289  68.897 -24.100  0.00  0.00     0.032 A 
ATOM      6  C14 <0> d          31.272  68.769 -23.165  0.00  0.00     0.061 A 
ENDROOT
BRANCH   1   7
ATOM      7  N2  <0> d          30.361  69.278 -20.979  0.00  0.00    -0.331 N 
ATOM      8  H7  <0> d          30.215  68.428 -20.533  0.00  0.00     0.168 HD
BRANCH   7   9
ATOM      9  C8  <0> d          29.579  70.335 -20.686  0.00  0.00     0.179 C 
ATOM     10  S1  <0> d          29.830  71.208 -19.235  0.00  0.00    -0.040 SA
BRANCH   9  11
ATOM     11  N1  <0> d          28.600  70.705 -21.535  0.00  0.00    -0.299 N 
ATOM     12  C7  <0> d          27.647  69.821 -21.892  0.00  0.00     0.257 C 
ATOM     13  O1  <0> d          27.675  68.688 -21.454  0.00  0.00    -0.267 OA
ATOM     14  H6  <0> d          28.578  71.610 -21.883  0.00  0.00     0.171 HD
BRANCH  12  15
ATOM     15  C4  <0> d          26.570  70.229 -22.817  0.00  0.00     0.032 A 
ATOM     16  C3  <0> d          25.841  69.264 -23.513  0.00  0.00     0.017 A 
ATOM     17  C2  <0> d          24.835  69.652 -24.375  0.00  0.00     0.001 A 
ATOM     18  C1  <0> d          24.550  70.994 -24.549  0.00  0.00     0.000 A 
ATOM     19  C6  <0> d          25.268  71.956 -23.862  0.00  0.00     0.001 A 
ATOM     20  C5  <0> d          26.273  71.583 -22.994  0.00  0.00     0.017 A 
ENDBRANCH  12  15
ENDBRANCH   9  11
ENDBRANCH   7   9
ENDBRANCH   1   7
BRANCH   6  21
ATOM     21  N3  <0> d          30.138  68.003 -23.461  0.00  0.00    -0.331 N 
ATOM     22  H12 <0> d          29.682  67.518 -22.755  0.00  0.00     0.168 HD
BRANCH  21  23
ATOM     23  C15 <0> d          29.679  67.939 -24.728  0.00  0.00     0.179 C 
ATOM     24  S2  <0> d          30.140  66.639 -25.740  0.00  0.00    -0.040 SA
ATOM     25  N4  <0> d          28.857  68.900 -25.194  0.00  0.00    -0.299 N 
ATOM     26  C16 <0> d          28.398  68.836 -26.460  0.00  0.00     0.257 C 
ATOM     27  H13 <0> d          28.596  69.636 -24.621  0.00  0.00     0.171 HD
ATOM     28  O2  <0> d          28.725  67.914 -27.180  0.00  0.00    -0.267 OA
BRANCH  26  29
ATOM     29  C17 <0> d          27.496  69.889 -26.973  0.00  0.00     0.032 A 
ATOM     30  C22 <0> d          27.716  71.226 -26.638  0.00  0.00     0.017 A 
ATOM     31  C21 <0> d          26.871  72.203 -27.121  0.00  0.00     0.001 A 
ATOM     32  C20 <0> d          25.806  71.861 -27.935  0.00  0.00     0.000 A 
ATOM     33  C19 <0> d          25.583  70.537 -28.272  0.00  0.00     0.001 A 
ATOM     34  C18 <0> d          26.423  69.550 -27.800  0.00  0.00     0.017 A 
ENDBRANCH  26  29
ENDBRANCH  21  23
ENDBRANCH   6  21
TORSDOF 7
ENDMDL
MODEL 2
REMARK VINA RESULT:      -7.0      3.455      5.820
REMARK  7 active torsions:
REMARK  status: ('A' for Active; 'I' for Inactive)
REMARK    1  A    between atoms: C4_4  and  C7_7 
REMARK       I    between atoms: C7_7  and  N1_9 
REMARK    2  A    between atoms: N1_9  and  C8_10 
REMARK    3  A    between atoms: C8_10  and  N2_12 
REMARK    4  A    between atoms: N2_12  and  C9_13 
REMARK    5  A    between atoms: C14_18  and  N3_19 
REMARK    6  A    between atoms: N3_19  and  C15_20 
REMARK       I    between atoms: N4_22  and  C16_23 
REMARK    7  A    between atoms: C16_23  and  C17_25 
ROOT
ATOM      1  C9  <0> d          28.286  68.975 -23.234  0.00  0.00     0.061 A 
ATOM      2  C10 <0> d          27.195  69.284 -24.032  0.00  0.00     0.032 A 
ATOM      3  C11 <0> d          27.371  69.517 -25.383  0.00  0.00     0.002 A 
ATOM      4  C12 <0> d          28.632  69.432 -25.946  0.00  0.00     0.002 A 
ATOM      5  C13 <0> d          29.724  69.119 -25.158  0.00  0.00     0.032 A 
ATOM      6  C14 <0> d          29.557  68.889 -23.800  0.00  0.00     0.061 A 
ENDROOT
BRANCH   1   7
ATOM      7  N2  <0> d          28.110  68.743 -21.863  0.00  0.00    -0.331 N 
ATOM      8  H7  <0> d          28.406  67.906 -21.472  0.00  0.00     0.168 HD
BRANCH   7   9
ATOM      9  C8  <0> d          27.531  69.681 -21.089  0.00  0.00     0.179 C 
ATOM     10  S1  <0> d          28.489  70.898 -20.358  0.00  0.00    -0.040 SA
BRANCH   9  11
ATOM     11  N1  <0> d          26.199  69.662 -20.889  0.00  0.00    -0.299 N 
ATOM     12  C7  <0> d          25.624  68.609 -20.274  0.00  0.00     0.257 C 
ATOM     13  O1  <0> d          26.308  67.674 -19.906  0.00  0.00    -0.267 OA
ATOM     14  H6  <0> d          25.654  70.409 -21.183  0.00  0.00     0.171 HD
BRANCH  12  15
ATOM     15  C4  <0> d          24.164  68.591 -20.049  0.00  0.00     0.032 A 
ATOM     16  C3  <0> d          23.636  67.957 -18.924  0.00  0.00     0.017 A 
ATOM     17  C2  <0> d          22.272  67.944 -18.720  0.00  0.00     0.001 A 
ATOM     18  C1  <0> d          21.428  68.558 -19.628  0.00  0.00     0.000 A 
ATOM     19  C6  <0> d          21.944  69.189 -20.746  0.00  0.00     0.001 A 
ATOM     20  C5  <0> d          23.307  69.213 -20.960  0.00  0.00     0.017 A 
ENDBRANCH  12  15
ENDBRANCH   9  11
ENDBRANCH   7   9
ENDBRANCH   1   7
BRANCH   6  21
ATOM     21  N3  <0> d          30.663  68.572 -23.000  0.00  0.00    -0.331 N 
ATOM     22  H12 <0> d          30.654  67.767 -22.459  0.00  0.00     0.168 HD
BRANCH  21  23
ATOM     23  C15 <0> d          31.738  69.385 -22.984  0.00  0.00     0.179 C 
ATOM     24  S2  <0> d          33.180  68.912 -23.776  0.00  0.00    -0.040 SA
ATOM     25  N4  <0> d          31.677  70.569 -22.344  0.00  0.00    -0.299 N 
ATOM     26  C16 <0> d          32.753  71.381 -22.327  0.00  0.00     0.257 C 
ATOM     27  H13 <0> d          30.861  70.837 -21.895  0.00  0.00     0.171 HD
ATOM     28  O2  <0> d          33.776  71.046 -22.889  0.00  0.00    -0.267 OA
BRANCH  26  29
ATOM     29  C17 <0> d          32.687  72.681 -21.626  0.00  0.00     0.032 A 
ATOM     30  C22 <0> d          33.579  73.702 -21.956  0.00  0.00     0.017 A 
ATOM     31  C21 <0> d          33.511  74.912 -21.297  0.00  0.00     0.001 A 
ATOM     32  C20 <0> d          32.562  75.115 -20.311  0.00  0.00     0.000 A 
ATOM     33  C19 <0> d          31.674  74.107 -19.980  0.00  0.00     0.001 A 
ATOM     34  C18 <0> d          31.728  72.893 -20.633  0.00  0.00     0.017 A 
ENDBRANCH  26  29
ENDBRANCH  21  23
ENDBRANCH   6  21
TORSDOF 7
ENDMDL
MODEL 3
REMARK VINA RESULT:      -6.2      2.804      6.391
REMARK  7 active torsions:
REMARK  status: ('A' for Active; 'I' for Inactive)
REMARK    1  A    between atoms: C4_4  and  C7_7 
REMARK       I    between atoms: C7_7  and  N1_9 
REMARK    2  A    between atoms: N1_9  and  C8_10 
REMARK    3  A    between atoms: C8_10  and  N2_12 
REMARK    4  A    between atoms: N2_12  and  C9_13 
REMARK    5  A    between atoms: C14_18  and  N3_19 
REMARK    6  A    between atoms: N3_19  and  C15_20 
REMARK       I    between atoms: N4_22  and  C16_23 
REMARK    7  A    between atoms: C16_23  and  C17_25 
ROOT
ATOM      1  C9  <0> d          25.266  69.412 -20.110  0.00  0.00     0.061 A 
ATOM      2  C10 <0> d          24.492  68.290 -19.856  0.00  0.00     0.032 A 
ATOM      3  C11 <0> d          25.063  67.174 -19.272  0.00  0.00     0.002 A 
ATOM      4  C12 <0> d          26.402  67.176 -18.930  0.00  0.00     0.002 A 
ATOM      5  C13 <0> d          27.180  68.292 -19.175  0.00  0.00     0.032 A 
ATOM      6  C14 <0> d          26.617  69.415 -19.765  0.00  0.00     0.061 A 
ENDROOT
BRANCH   1   7
ATOM      7  N2  <0> d          24.691  70.541 -20.706  0.00  0.00    -0.331 N 
ATOM      8  H7  <0> d          24.639  71.375 -20.213  0.00  0.00     0.168 HD
BRANCH   7   9
ATOM      9  C8  <0> d          24.210  70.471 -21.962  0.00  0.00     0.179 C 
ATOM     10  S1  <0> d          22.627  71.027 -22.305  0.00  0.00    -0.040 SA
BRANCH   9  11
ATOM     11  N1  <0> d          24.973  69.961 -22.948  0.00  0.00    -0.299 N 
ATOM     12  C7  <0> d          26.100  70.599 -23.327  0.00  0.00     0.257 C 
ATOM     13  O1  <0> d          26.423  71.636 -22.783  0.00  0.00    -0.267 OA
ATOM     14  H6  <0> d          24.716  69.133 -23.382  0.00  0.00     0.171 HD
BRANCH  12  15
ATOM     15  C4  <0> d          26.940  70.037 -24.404  0.00  0.00     0.032 A 
ATOM     16  C3  <0> d          26.413  69.858 -25.684  0.00  0.00     0.017 A 
ATOM     17  C2  <0> d          27.204  69.333 -26.685  0.00  0.00     0.001 A 
ATOM     18  C1  <0> d          28.517  68.984 -26.423  0.00  0.00     0.000 A 
ATOM     19  C6  <0> d          29.046  69.159 -25.157  0.00  0.00     0.001 A 
ATOM     20  C5  <0> d          28.268  69.687 -24.147  0.00  0.00     0.017 A 
ENDBRANCH  12  15
ENDBRANCH   9  11
ENDBRANCH   7   9
ENDBRANCH   1   7
BRANCH   6  21
ATOM     21  N3  <0> d          27.403  70.546 -20.014  0.00  0.00    -0.331 N 
ATOM     22  H12 <0> d          26.985  71.372 -20.307  0.00  0.00     0.168 HD
BRANCH  21  23
ATOM     23  C15 <0> d          28.740  70.489 -19.846  0.00  0.00     0.179 C 
ATOM     24  S2  <0> d          29.426  70.849 -18.320  0.00  0.00    -0.040 SA
ATOM     25  N4  <0> d          29.534  70.150 -20.880  0.00  0.00    -0.299 N 
ATOM     26  C16 <0> d          30.870  70.093 -20.712  0.00  0.00     0.257 C 
ATOM     27  H13 <0> d          29.145  69.947 -21.745  0.00  0.00     0.171 HD
ATOM     28  O2  <0> d          31.358  70.348 -19.629  0.00  0.00    -0.267 OA
BRANCH  26  29
ATOM     29  C17 <0> d          31.743  69.720 -21.845  0.00  0.00     0.032 A 
ATOM     30  C22 <0> d          32.794  70.556 -22.226  0.00  0.00     0.017 A 
ATOM     31  C21 <0> d          33.604  70.202 -23.285  0.00  0.00     0.001 A 
ATOM     32  C20 <0> d          33.377  69.021 -23.969  0.00  0.00     0.000 A 
ATOM     33  C19 <0> d          32.337  68.187 -23.596  0.00  0.00     0.001 A 
ATOM     34  C18 <0> d          31.522  68.527 -22.536  0.00  0.00     0.017 A 
ENDBRANCH  26  29
ENDBRANCH  21  23
ENDBRANCH   6  21
TORSDOF 7
ENDMDL
MODEL 4
REMARK VINA RESULT:      -6.1      2.810      5.677
REMARK  7 active torsions:
REMARK  status: ('A' for Active; 'I' for Inactive)
REMARK    1  A    between atoms: C4_4  and  C7_7 
REMARK       I    between atoms: C7_7  and  N1_9 
REMARK    2  A    between atoms: N1_9  and  C8_10 
REMARK    3  A    between atoms: C8_10  and  N2_12 
REMARK    4  A    between atoms: N2_12  and  C9_13 
REMARK    5  A    between atoms: C14_18  and  N3_19 
REMARK    6  A    between atoms: N3_19  and  C15_20 
REMARK       I    between atoms: N4_22  and  C16_23 
REMARK    7  A    between atoms: C16_23  and  C17_25 
ROOT
ATOM      1  C9  <0> d          29.829  69.534 -19.721  0.00  0.00     0.061 A 
ATOM      2  C10 <0> d          30.612  68.928 -18.751  0.00  0.00     0.032 A 
ATOM      3  C11 <0> d          30.450  69.268 -17.421  0.00  0.00     0.002 A 
ATOM      4  C12 <0> d          29.501  70.204 -17.052  0.00  0.00     0.002 A 
ATOM      5  C13 <0> d          28.712  70.809 -18.013  0.00  0.00     0.032 A 
ATOM      6  C14 <0> d          28.871  70.477 -19.350  0.00  0.00     0.061 A 
ENDROOT
BRANCH   1   7
ATOM      7  N2  <0> d          29.994  69.194 -21.070  0.00  0.00    -0.331 N 
ATOM      8  H7  <0> d          29.272  68.760 -21.552  0.00  0.00     0.168 HD
BRANCH   7   9
ATOM      9  C8  <0> d          31.153  69.470 -21.698  0.00  0.00     0.179 C 
ATOM     10  S1  <0> d          31.773  68.384 -22.868  0.00  0.00    -0.040 SA
BRANCH   9  11
ATOM     11  N1  <0> d          31.826  70.600 -21.406  0.00  0.00    -0.299 N 
ATOM     12  C7  <0> d          31.318  71.798 -21.760  0.00  0.00     0.257 C 
ATOM     13  O1  <0> d          30.257  71.858 -22.348  0.00  0.00    -0.267 OA
ATOM     14  H6  <0> d          32.672  70.552 -20.936  0.00  0.00     0.171 HD
BRANCH  12  15
ATOM     15  C4  <0> d          32.053  73.038 -21.433  0.00  0.00     0.032 A 
ATOM     16  C3  <0> d          33.110  73.459 -22.240  0.00  0.00     0.017 A 
ATOM     17  C2  <0> d          33.792  74.618 -21.930  0.00  0.00     0.001 A 
ATOM     18  C1  <0> d          33.428  75.362 -20.821  0.00  0.00     0.000 A 
ATOM     19  C6  <0> d          32.380  74.950 -20.017  0.00  0.00     0.001 A 
ATOM     20  C5  <0> d          31.688  73.796 -20.318  0.00  0.00     0.017 A 
ENDBRANCH  12  15
ENDBRANCH   9  11
ENDBRANCH   7   9
ENDBRANCH   1   7
BRANCH   6  21
ATOM     21  N3  <0> d          28.073  71.089 -20.325  0.00  0.00    -0.331 N 
ATOM     22  H12 <0> d          28.272  71.993 -20.617  0.00  0.00     0.168 HD
BRANCH  21  23
ATOM     23  C15 <0> d          27.029  70.423 -20.859  0.00  0.00     0.179 C 
ATOM     24  S2  <0> d          25.840  69.738 -19.836  0.00  0.00    -0.040 SA
ATOM     25  N4  <0> d          26.923  70.297 -22.196  0.00  0.00    -0.299 N 
ATOM     26  C16 <0> d          25.880  69.631 -22.729  0.00  0.00     0.257 C 
ATOM     27  H13 <0> d          27.597  70.685 -22.775  0.00  0.00     0.171 HD
ATOM     28  O2  <0> d          25.036  69.144 -22.004  0.00  0.00    -0.267 OA
BRANCH  26  29
ATOM     29  C17 <0> d          25.762  69.493 -24.195  0.00  0.00     0.032 A 
ATOM     30  C22 <0> d          26.903  69.544 -24.998  0.00  0.00     0.017 A 
ATOM     31  C21 <0> d          26.786  69.414 -26.366  0.00  0.00     0.001 A 
ATOM     32  C20 <0> d          25.541  69.233 -26.944  0.00  0.00     0.000 A 
ATOM     33  C19 <0> d          24.407  69.181 -26.153  0.00  0.00     0.001 A 
ATOM     34  C18 <0> d          24.510  69.305 -24.783  0.00  0.00     0.017 A 
ENDBRANCH  26  29
ENDBRANCH  21  23
ENDBRANCH   6  21
TORSDOF 7
ENDMDL
MODEL 5
REMARK VINA RESULT:      -6.1      4.305      7.504
REMARK  7 active torsions:
REMARK  status: ('A' for Active; 'I' for Inactive)
REMARK    1  A    between atoms: C4_4  and  C7_7 
REMARK       I    between atoms: C7_7  and  N1_9 
REMARK    2  A    between atoms: N1_9  and  C8_10 
REMARK    3  A    between atoms: C8_10  and  N2_12 
REMARK    4  A    between atoms: N2_12  and  C9_13 
REMARK    5  A    between atoms: C14_18  and  N3_19 
REMARK    6  A    between atoms: N3_19  and  C15_20 
REMARK       I    between atoms: N4_22  and  C16_23 
REMARK    7  A    between atoms: C16_23  and  C17_25 
ROOT
ATOM      1  C9  <0> d          31.097  70.299 -21.374  0.00  0.00     0.061 A 
ATOM      2  C10 <0> d          32.155  69.713 -22.053  0.00  0.00     0.032 A 
ATOM      3  C11 <0> d          33.185  70.498 -22.536  0.00  0.00     0.002 A 
ATOM      4  C12 <0> d          33.171  71.866 -22.335  0.00  0.00     0.002 A 
ATOM      5  C13 <0> d          32.123  72.457 -21.654  0.00  0.00     0.032 A 
ATOM      6  C14 <0> d          31.083  71.678 -21.170  0.00  0.00     0.061 A 
ENDROOT
BRANCH   1   7
ATOM      7  N2  <0> d          30.050  69.506 -20.887  0.00  0.00    -0.331 N 
ATOM      8  H7  <0> d          30.138  69.060 -20.030  0.00  0.00     0.168 HD
BRANCH   7   9
ATOM      9  C8  <0> d          28.921  69.362 -21.608  0.00  0.00     0.179 C 
ATOM     10  S1  <0> d          27.437  69.965 -21.003  0.00  0.00    -0.040 SA
BRANCH   9  11
ATOM     11  N1  <0> d          28.960  68.744 -22.804  0.00  0.00    -0.299 N 
ATOM     12  C7  <0> d          28.879  69.467 -23.940  0.00  0.00     0.257 C 
ATOM     13  O1  <0> d          28.766  70.675 -23.884  0.00  0.00    -0.267 OA
ATOM     14  H6  <0> d          29.051  67.780 -22.849  0.00  0.00     0.171 HD
BRANCH  12  15
ATOM     15  C4  <0> d          28.928  68.790 -25.252  0.00  0.00     0.032 A 
ATOM     16  C3  <0> d          28.159  69.265 -26.315  0.00  0.00     0.017 A 
ATOM     17  C2  <0> d          28.209  68.628 -27.538  0.00  0.00     0.001 A 
ATOM     18  C1  <0> d          29.020  67.521 -27.711  0.00  0.00     0.000 A 
ATOM     19  C6  <0> d          29.786  67.045 -26.662  0.00  0.00     0.001 A 
ATOM     20  C5  <0> d          29.749  67.674 -25.435  0.00  0.00     0.017 A 
ENDBRANCH  12  15
ENDBRANCH   9  11
ENDBRANCH   7   9
ENDBRANCH   1   7
BRANCH   6  21
ATOM     21  N3  <0> d          30.020  72.275 -20.480  0.00  0.00    -0.331 N 
ATOM     22  H12 <0> d          29.139  72.312 -20.886  0.00  0.00     0.168 HD
BRANCH  21  23
ATOM     23  C15 <0> d          30.220  72.797 -19.253  0.00  0.00     0.179 C 
ATOM     24  S2  <0> d          30.750  71.792 -17.973  0.00  0.00    -0.040 SA
ATOM     25  N4  <0> d          30.004  74.109 -19.036  0.00  0.00    -0.299 N 
ATOM     26  C16 <0> d          30.204  74.630 -17.809  0.00  0.00     0.257 C 
ATOM     27  H13 <0> d          29.704  74.678 -19.761  0.00  0.00     0.171 HD
ATOM     28  O2  <0> d          30.580  73.918 -16.900  0.00  0.00    -0.267 OA
BRANCH  26  29
ATOM     29  C17 <0> d          29.967  76.069 -17.570  0.00  0.00     0.032 A 
ATOM     30  C22 <0> d          30.037  76.977 -18.628  0.00  0.00     0.017 A 
ATOM     31  C21 <0> d          29.814  78.318 -18.397  0.00  0.00     0.001 A 
ATOM     32  C20 <0> d          29.522  78.766 -17.120  0.00  0.00     0.000 A 
ATOM     33  C19 <0> d          29.451  77.870 -16.068  0.00  0.00     0.001 A 
ATOM     34  C18 <0> d          29.667  76.526 -16.285  0.00  0.00     0.017 A 
ENDBRANCH  26  29
ENDBRANCH  21  23
ENDBRANCH   6  21
TORSDOF 7
ENDMDL
MODEL 6
REMARK VINA RESULT:      -6.1      2.197      4.652
REMARK  7 active torsions:
REMARK  status: ('A' for Active; 'I' for Inactive)
REMARK    1  A    between atoms: C4_4  and  C7_7 
REMARK       I    between atoms: C7_7  and  N1_9 
REMARK    2  A    between atoms: N1_9  and  C8_10 
REMARK    3  A    between atoms: C8_10  and  N2_12 
REMARK    4  A    between atoms: N2_12  and  C9_13 
REMARK    5  A    between atoms: C14_18  and  N3_19 
REMARK    6  A    between atoms: N3_19  and  C15_20 
REMARK       I    between atoms: N4_22  and  C16_23 
REMARK    7  A    between atoms: C16_23  and  C17_25 
ROOT
ATOM      1  C9  <0> d          29.810  69.945 -20.201  0.00  0.00     0.061 A 
ATOM      2  C10 <0> d          30.562  69.349 -19.200  0.00  0.00     0.032 A 
ATOM      3  C11 <0> d          30.812  70.030 -18.024  0.00  0.00     0.002 A 
ATOM      4  C12 <0> d          30.305  71.303 -17.836  0.00  0.00     0.002 A 
ATOM      5  C13 <0> d          29.549  71.903 -18.826  0.00  0.00     0.032 A 
ATOM      6  C14 <0> d          29.298  71.228 -20.012  0.00  0.00     0.061 A 
ENDROOT
BRANCH   1   7
ATOM      7  N2  <0> d          29.560  69.258 -21.396  0.00  0.00    -0.331 N 
ATOM      8  H7  <0> d          28.720  68.788 -21.517  0.00  0.00     0.168 HD
BRANCH   7   9
ATOM      9  C8  <0> d          30.484  69.250 -22.375  0.00  0.00     0.179 C 
ATOM     10  S1  <0> d          32.040  69.907 -22.091  0.00  0.00    -0.040 SA
BRANCH   9  11
ATOM     11  N1  <0> d          30.185  68.725 -23.580  0.00  0.00    -0.299 N 
ATOM     12  C7  <0> d          29.381  69.399 -24.428  0.00  0.00     0.257 C 
ATOM     13  O1  <0> d          28.921  70.475 -24.103  0.00  0.00    -0.267 OA
ATOM     14  H6  <0> d          30.553  67.867 -23.840  0.00  0.00     0.171 HD
BRANCH  12  15
ATOM     15  C4  <0> d          29.058  68.827 -25.751  0.00  0.00     0.032 A 
ATOM     16  C3  <0> d          29.750  67.709 -26.219  0.00  0.00     0.017 A 
ATOM     17  C2  <0> d          29.443  67.179 -27.456  0.00  0.00     0.001 A 
ATOM     18  C1  <0> d          28.452  67.754 -28.231  0.00  0.00     0.000 A 
ATOM     19  C6  <0> d          27.761  68.862 -27.773  0.00  0.00     0.001 A 
ATOM     20  C5  <0> d          28.055  69.399 -26.537  0.00  0.00     0.017 A 
ENDBRANCH  12  15
ENDBRANCH   9  11
ENDBRANCH   7   9
ENDBRANCH   1   7
BRANCH   6  21
ATOM     21  N3  <0> d          28.533  71.835 -21.016  0.00  0.00    -0.331 N 
ATOM     22  H12 <0> d          28.907  72.564 -21.536  0.00  0.00     0.168 HD
BRANCH  21  23
ATOM     23  C15 <0> d          27.280  71.404 -21.263  0.00  0.00     0.179 C 
ATOM     24  S2  <0> d          26.210  71.098 -19.962  0.00  0.00    -0.040 SA
ATOM     25  N4  <0> d          26.870  71.215 -22.533  0.00  0.00    -0.299 N 
ATOM     26  C16 <0> d          25.617  70.784 -22.778  0.00  0.00     0.257 C 
ATOM     27  H13 <0> d          27.476  71.388 -23.269  0.00  0.00     0.171 HD
ATOM     28  O2  <0> d          24.857  70.567 -21.856  0.00  0.00    -0.267 OA
BRANCH  26  29
ATOM     29  C17 <0> d          25.166  70.577 -24.170  0.00  0.00     0.032 A 
ATOM     30  C22 <0> d          25.168  71.640 -25.074  0.00  0.00     0.017 A 
ATOM     31  C21 <0> d          24.746  71.439 -26.372  0.00  0.00     0.001 A 
ATOM     32  C20 <0> d          24.322  70.187 -26.779  0.00  0.00     0.000 A 
ATOM     33  C19 <0> d          24.320  69.128 -25.889  0.00  0.00     0.001 A 
ATOM     34  C18 <0> d          24.742  69.314 -24.589  0.00  0.00     0.017 A 
ENDBRANCH  26  29
ENDBRANCH  21  23
ENDBRANCH   6  21
TORSDOF 7
ENDMDL
MODEL 7
REMARK VINA RESULT:      -6.1     18.973     20.747
REMARK  7 active torsions:
REMARK  status: ('A' for Active; 'I' for Inactive)
REMARK    1  A    between atoms: C4_4  and  C7_7 
REMARK       I    between atoms: C7_7  and  N1_9 
REMARK    2  A    between atoms: N1_9  and  C8_10 
REMARK    3  A    between atoms: C8_10  and  N2_12 
REMARK    4  A    between atoms: N2_12  and  C9_13 
REMARK    5  A    between atoms: C14_18  and  N3_19 
REMARK    6  A    between atoms: N3_19  and  C15_20 
REMARK       I    between atoms: N4_22  and  C16_23 
REMARK    7  A    between atoms: C16_23  and  C17_25 
ROOT
ATOM      1  C9  <0> d          33.357  90.632 -21.377  0.00  0.00     0.061 A 
ATOM      2  C10 <0> d          33.019  91.796 -22.050  0.00  0.00     0.032 A 
ATOM      3  C11 <0> d          32.439  91.727 -23.303  0.00  0.00     0.002 A 
ATOM      4  C12 <0> d          32.184  90.499 -23.885  0.00  0.00     0.002 A 
ATOM      5  C13 <0> d          32.513  89.333 -23.219  0.00  0.00     0.032 A 
ATOM      6  C14 <0> d          33.100  89.393 -21.964  0.00  0.00     0.061 A 
ENDROOT
BRANCH   1   7
ATOM      7  N2  <0> d          33.949  90.699 -20.110  0.00  0.00    -0.331 N 
ATOM      8  H7  <0> d          34.744  90.177 -19.918  0.00  0.00     0.168 HD
BRANCH   7   9
ATOM      9  C8  <0> d          33.415  91.488 -19.158  0.00  0.00     0.179 C 
ATOM     10  S1  <0> d          34.115  93.014 -18.819  0.00  0.00    -0.040 SA
BRANCH   9  11
ATOM     11  N1  <0> d          32.331  91.077 -18.471  0.00  0.00    -0.299 N 
ATOM     12  C7  <0> d          32.469  90.199 -17.457  0.00  0.00     0.257 C 
ATOM     13  O1  <0> d          33.569  89.773 -17.167  0.00  0.00    -0.267 OA
ATOM     14  H6  <0> d          31.453  91.418 -18.702  0.00  0.00     0.171 HD
BRANCH  12  15
ATOM     15  C4  <0> d          31.281  89.753 -16.700  0.00  0.00     0.032 A 
ATOM     16  C3  <0> d          30.057  89.589 -17.349  0.00  0.00     0.017 A 
ATOM     17  C2  <0> d          28.951  89.172 -16.636  0.00  0.00     0.001 A 
ATOM     18  C1  <0> d          29.056  88.917 -15.280  0.00  0.00     0.000 A 
ATOM     19  C6  <0> d          30.266  89.077 -14.630  0.00  0.00     0.001 A 
ATOM     20  C5  <0> d          31.380  89.489 -15.331  0.00  0.00     0.017 A 
ENDBRANCH  12  15
ENDBRANCH   9  11
ENDBRANCH   7   9
ENDBRANCH   1   7
BRANCH   6  21
ATOM     21  N3  <0> d          33.435  88.213 -21.288  0.00  0.00    -0.331 N 
ATOM     22  H12 <0> d          34.353  87.899 -21.287  0.00  0.00     0.168 HD
BRANCH  21  23
ATOM     23  C15 <0> d          32.482  87.514 -20.638  0.00  0.00     0.179 C 
ATOM     24  S2  <0> d          31.101  86.960 -21.485  0.00  0.00    -0.040 SA
ATOM     25  N4  <0> d          32.618  87.252 -19.324  0.00  0.00    -0.299 N 
ATOM     26  C16 <0> d          31.665  86.553 -18.675  0.00  0.00     0.257 C 
ATOM     27  H13 <0> d          33.400  87.566 -18.845  0.00  0.00     0.171 HD
ATOM     28  O2  <0> d          30.685  86.160 -19.274  0.00  0.00    -0.267 OA
BRANCH  26  29
ATOM     29  C17 <0> d          31.813  86.265 -17.233  0.00  0.00     0.032 A 
ATOM     30  C22 <0> d          30.724  85.801 -16.494  0.00  0.00     0.017 A 
ATOM     31  C21 <0> d          30.870  85.534 -15.149  0.00  0.00     0.001 A 
ATOM     32  C20 <0> d          32.093  85.726 -14.531  0.00  0.00     0.000 A 
ATOM     33  C19 <0> d          33.177  86.184 -15.257  0.00  0.00     0.001 A 
ATOM     34  C18 <0> d          33.046  86.451 -16.604  0.00  0.00     0.017 A 
ENDBRANCH  26  29
ENDBRANCH  21  23
ENDBRANCH   6  21
TORSDOF 7
ENDMDL
MODEL 8
REMARK VINA RESULT:      -5.9     22.494     24.743
REMARK  7 active torsions:
REMARK  status: ('A' for Active; 'I' for Inactive)
REMARK    1  A    between atoms: C4_4  and  C7_7 
REMARK       I    between atoms: C7_7  and  N1_9 
REMARK    2  A    between atoms: N1_9  and  C8_10 
REMARK    3  A    between atoms: C8_10  and  N2_12 
REMARK    4  A    between atoms: N2_12  and  C9_13 
REMARK    5  A    between atoms: C14_18  and  N3_19 
REMARK    6  A    between atoms: N3_19  and  C15_20 
REMARK       I    between atoms: N4_22  and  C16_23 
REMARK    7  A    between atoms: C16_23  and  C17_25 
ROOT
ATOM      1  C9  <0> d           9.800  51.448 -26.679  0.00  0.00     0.061 A 
ATOM      2  C10 <0> d          10.156  51.532 -25.342  0.00  0.00     0.032 A 
ATOM      3  C11 <0> d          11.488  51.467 -24.976  0.00  0.00     0.002 A 
ATOM      4  C12 <0> d          12.468  51.328 -25.940  0.00  0.00     0.002 A 
ATOM      5  C13 <0> d          12.122  51.248 -27.276  0.00  0.00     0.032 A 
ATOM      6  C14 <0> d          10.788  51.308 -27.653  0.00  0.00     0.061 A 
ENDROOT
BRANCH   1   7
ATOM      7  N2  <0> d           8.451  51.509 -27.052  0.00  0.00    -0.331 N 
ATOM      8  H7  <0> d           8.040  50.759 -27.509  0.00  0.00     0.168 HD
BRANCH   7   9
ATOM      9  C8  <0> d           7.725  52.610 -26.777  0.00  0.00     0.179 C 
ATOM     10  S1  <0> d           6.107  52.455 -26.237  0.00  0.00    -0.040 SA
BRANCH   9  11
ATOM     11  N1  <0> d           8.270  53.833 -26.927  0.00  0.00    -0.299 N 
ATOM     12  C7  <0> d           8.556  54.297 -28.160  0.00  0.00     0.257 C 
ATOM     13  O1  <0> d           8.328  53.609 -29.136  0.00  0.00    -0.267 OA
ATOM     14  H6  <0> d           8.452  54.381 -26.148  0.00  0.00     0.171 HD
BRANCH  12  15
ATOM     15  C4  <0> d           9.149  55.640 -28.325  0.00  0.00     0.032 A 
ATOM     16  C3  <0> d           8.393  56.677 -28.874  0.00  0.00     0.017 A 
ATOM     17  C2  <0> d           8.952  57.929 -29.025  0.00  0.00     0.001 A 
ATOM     18  C1  <0> d          10.259  58.158 -28.633  0.00  0.00     0.000 A 
ATOM     19  C6  <0> d          11.014  57.135 -28.088  0.00  0.00     0.001 A 
ATOM     20  C5  <0> d          10.466  55.879 -27.927  0.00  0.00     0.017 A 
ENDBRANCH  12  15
ENDBRANCH   9  11
ENDBRANCH   7   9
ENDBRANCH   1   7
BRANCH   6  21
ATOM     21  N3  <0> d          10.436  51.227 -29.006  0.00  0.00    -0.331 N 
ATOM     22  H12 <0> d           9.607  50.795 -29.265  0.00  0.00     0.168 HD
BRANCH  21  23
ATOM     23  C15 <0> d          11.247  51.751 -29.947  0.00  0.00     0.179 C 
ATOM     24  S2  <0> d          12.227  50.721 -30.900  0.00  0.00    -0.040 SA
ATOM     25  N4  <0> d          11.285  53.084 -30.137  0.00  0.00    -0.299 N 
ATOM     26  C16 <0> d          12.096  53.607 -31.078  0.00  0.00     0.257 C 
ATOM     27  H13 <0> d          10.730  53.667 -29.596  0.00  0.00     0.171 HD
ATOM     28  O2  <0> d          12.792  52.877 -31.754  0.00  0.00    -0.267 OA
BRANCH  26  29
ATOM     29  C17 <0> d          12.138  55.070 -31.287  0.00  0.00     0.032 A 
ATOM     30  C22 <0> d          13.247  55.807 -30.868  0.00  0.00     0.017 A 
ATOM     31  C21 <0> d          13.280  57.171 -31.066  0.00  0.00     0.001 A 
ATOM     32  C20 <0> d          12.216  57.810 -31.679  0.00  0.00     0.000 A 
ATOM     33  C19 <0> d          11.115  57.085 -32.098  0.00  0.00     0.001 A 
ATOM     34  C18 <0> d          11.070  55.720 -31.909  0.00  0.00     0.017 A 
ENDBRANCH  26  29
ENDBRANCH  21  23
ENDBRANCH   6  21
TORSDOF 7
ENDMDL
MODEL 9
REMARK VINA RESULT:      -5.9     21.187     24.156
REMARK  7 active torsions:
REMARK  status: ('A' for Active; 'I' for Inactive)
REMARK    1  A    between atoms: C4_4  and  C7_7 
REMARK       I    between atoms: C7_7  and  N1_9 
REMARK    2  A    between atoms: N1_9  and  C8_10 
REMARK    3  A    between atoms: C8_10  and  N2_12 
REMARK    4  A    between atoms: N2_12  and  C9_13 
REMARK    5  A    between atoms: C14_18  and  N3_19 
REMARK    6  A    between atoms: N3_19  and  C15_20 
REMARK       I    between atoms: N4_22  and  C16_23 
REMARK    7  A    between atoms: C16_23  and  C17_25 
ROOT
ATOM      1  C9  <0> d          26.591  57.763  -5.422  0.00  0.00     0.061 A 
ATOM      2  C10 <0> d          26.439  58.919  -4.672  0.00  0.00     0.032 A 
ATOM      3  C11 <0> d          26.442  58.853  -3.291  0.00  0.00     0.002 A 
ATOM      4  C12 <0> d          26.606  57.637  -2.653  0.00  0.00     0.002 A 
ATOM      5  C13 <0> d          26.763  56.480  -3.393  0.00  0.00     0.032 A 
ATOM      6  C14 <0> d          26.757  56.536  -4.778  0.00  0.00     0.061 A 
ENDROOT
BRANCH   1   7
ATOM      7  N2  <0> d          26.584  57.827  -6.821  0.00  0.00    -0.331 N 
ATOM      8  H7  <0> d          25.822  57.490  -7.317  0.00  0.00     0.168 HD
BRANCH   7   9
ATOM      9  C8  <0> d          27.635  58.355  -7.477  0.00  0.00     0.179 C 
ATOM     10  S1  <0> d          27.399  59.140  -8.980  0.00  0.00    -0.040 SA
BRANCH   9  11
ATOM     11  N1  <0> d          28.872  58.266  -6.950  0.00  0.00    -0.299 N 
ATOM     12  C7  <0> d          29.585  57.130  -7.092  0.00  0.00     0.257 C 
ATOM     13  O1  <0> d          29.109  56.185  -7.688  0.00  0.00    -0.267 OA
ATOM     14  H6  <0> d          29.253  59.021  -6.475  0.00  0.00     0.171 HD
BRANCH  12  15
ATOM     15  C4  <0> d          30.944  57.034  -6.521  0.00  0.00     0.032 A 
ATOM     16  C3  <0> d          32.008  56.599  -7.312  0.00  0.00     0.017 A 
ATOM     17  C2  <0> d          33.275  56.513  -6.772  0.00  0.00     0.001 A 
ATOM     18  C1  <0> d          33.491  56.857  -5.450  0.00  0.00     0.000 A 
ATOM     19  C6  <0> d          32.441  57.290  -4.660  0.00  0.00     0.001 A 
ATOM     20  C5  <0> d          31.171  57.385  -5.187  0.00  0.00     0.017 A 
ENDBRANCH  12  15
ENDBRANCH   9  11
ENDBRANCH   7   9
ENDBRANCH   1   7
BRANCH   6  21
ATOM     21  N3  <0> d          26.916  55.365  -5.530  0.00  0.00    -0.331 N 
ATOM     22  H12 <0> d          26.511  55.295  -6.409  0.00  0.00     0.168 HD
BRANCH  21  23
ATOM     23  C15 <0> d          27.632  54.337  -5.033  0.00  0.00     0.179 C 
ATOM     24  S2  <0> d          26.834  53.032  -4.264  0.00  0.00    -0.040 SA
ATOM     25  N4  <0> d          28.975  54.337  -5.142  0.00  0.00    -0.299 N 
ATOM     26  C16 <0> d          29.690  53.308  -4.645  0.00  0.00     0.257 C 
ATOM     27  H13 <0> d          29.427  55.076  -5.577  0.00  0.00     0.171 HD
ATOM     28  O2  <0> d          29.125  52.382  -4.099  0.00  0.00    -0.267 OA
BRANCH  26  29
ATOM     29  C17 <0> d          31.164  53.307  -4.764  0.00  0.00     0.032 A 
ATOM     30  C22 <0> d          31.769  52.998  -5.983  0.00  0.00     0.017 A 
ATOM     31  C21 <0> d          33.144  53.000  -6.087  0.00  0.00     0.001 A 
ATOM     32  C20 <0> d          33.924  53.305  -4.986  0.00  0.00     0.000 A 
ATOM     33  C19 <0> d          33.331  53.613  -3.774  0.00  0.00     0.001 A 
ATOM     34  C18 <0> d          31.956  53.620  -3.658  0.00  0.00     0.017 A 
ENDBRANCH  26  29
ENDBRANCH  21  23
ENDBRANCH   6  21
TORSDOF 7
ENDMDL
