REMARK  6 active torsions:
REMARK  status: ('A' for Active; 'I' for Inactive)
REMARK    1  A    between atoms: C2_2  and  C3_3 
REMARK    2  A    between atoms: C2_2  and  S1_7 
REMARK    3  A    between atoms: C3_3  and  O2_5 
REMARK    4  A    between atoms: S1_7  and  C5_8 
REMARK    5  A    between atoms: C7_10  and  C17_22 
REMARK    6  A    between atoms: C20_25  and  O4_28 
ROOT
ATOM      1  C5  <0> d           2.533   5.869  -0.727  0.00  0.00     0.116 A 
ATOM      2  C6  <0> d           3.537   6.718  -1.226  0.00  0.00     0.092 A 
ATOM      3  C7  <0> d           3.311   8.112  -1.225  0.00  0.00     0.011 A 
ATOM      4  C8  <0> d           2.092   8.583  -0.714  0.00  0.00     0.021 A 
ATOM      5  C9  <0> d           1.151   7.665  -0.233  0.00  0.00     0.121 A 
ATOM      6  N1  <0> d           1.399   6.363  -0.256  0.00  0.00    -0.235 NA
ATOM      7  C10 <0> d          -0.031   8.438   0.241  0.00  0.00     0.212 A 
ATOM      8  O3  <0> d          -1.046   7.981   0.724  0.00  0.00    -0.285 OA
ATOM      9  C11 <0> d           0.267   9.870   0.011  0.00  0.00     0.028 A 
ATOM     10  C12 <0> d           1.547   9.955  -0.565  0.00  0.00    -0.008 A 
ATOM     11  C13 <0> d           2.072  11.201  -0.883  0.00  0.00     0.013 A 
ATOM     12  C14 <0> d           1.336  12.348  -0.633  0.00  0.00     0.001 A 
ATOM     13  C15 <0> d           0.078  12.264  -0.068  0.00  0.00     0.001 A 
ATOM     14  C16 <0> d          -0.461  11.030   0.255  0.00  0.00     0.016 A 
ATOM     15  C24 <0> d           4.763   6.178  -1.730  0.00  0.00     0.103 C 
ATOM     16  N2  <0> d           5.737   5.750  -2.130  0.00  0.00    -0.191 NA
ENDROOT
BRANCH   1  17
ATOM     17  S1  <0> d           2.790   4.126  -0.724  0.00  0.00    -0.094 SA
BRANCH  17  18
ATOM     18  C2  <0> d           1.228   3.579   0.010  0.00  0.00     0.149 C 
ATOM     19  C1  <0> d           1.136   4.086   1.450  0.00  0.00     0.032 C 
BRANCH  18  20
ATOM     20  C3  <0> d           1.170   2.073   0.002  0.00  0.00     0.272 C 
ATOM     21  O1  <0> d           2.192   1.429  -0.011  0.00  0.00    -0.264 OA
BRANCH  20  22
ATOM     22  O2  <0> d          -0.018   1.448   0.010  0.00  0.00    -0.326 OA
ATOM     23  C4  <0> d           0.002  -0.004   0.002  0.00  0.00     0.213 C 
ENDBRANCH  20  22
ENDBRANCH  18  20
ENDBRANCH  17  18
ENDBRANCH   1  17
BRANCH   3  24
ATOM     24  C17 <0> d           4.333   9.048  -1.743  0.00  0.00    -0.023 A 
ATOM     25  C22 <0> d           5.566   9.164  -1.099  0.00  0.00     0.015 A 
ATOM     26  C21 <0> d           6.515  10.038  -1.584  0.00  0.00     0.037 A 
ATOM     27  C20 <0> d           6.246  10.802  -2.712  0.00  0.00     0.068 A 
ATOM     28  C19 <0> d           5.020  10.689  -3.356  0.00  0.00     0.037 A 
ATOM     29  C18 <0> d           4.068   9.813  -2.880  0.00  0.00     0.015 A 
BRANCH  27  30
ATOM     30  O4  <0> d           7.184  11.662  -3.188  0.00  0.00    -0.356 OA
ATOM     31  C23 <0> d           6.841  12.417  -4.351  0.00  0.00     0.210 C 
ENDBRANCH  27  30
ENDBRANCH   3  24
TORSDOF 6
