REMARK  6 active torsions:
REMARK  status: ('A' for Active; 'I' for Inactive)
REMARK    1  A    between atoms: O_2  and  C_7 
REMARK    2  A    between atoms: O_3  and  C_8 
REMARK    3  A    between atoms: O_4  and  C_10 
REMARK    4  A    between atoms: O_5  and  C_11 
REMARK    5  A    between atoms: O_6  and  C_12 
REMARK    6  A    between atoms: C_9  and  C_12 
ROOT
HETATM    1  O   LIG     1      -0.668   1.159   0.257  1.00  0.00    -0.349 OA
HETATM    2  C   LIG     1      -0.373  -1.247   0.230  1.00  0.00     0.180 C 
HETATM    3  C   LIG     1       1.086  -1.071  -0.194  1.00  0.00     0.183 C 
HETATM    4  C   LIG     1      -1.221  -0.062  -0.237  1.00  0.00     0.179 C 
HETATM    5  C   LIG     1       1.608   0.315   0.184  1.00  0.00     0.204 C 
HETATM    6  C   LIG     1       0.639   1.413  -0.253  1.00  0.00     0.288 C 
ENDROOT
BRANCH   4   7
HETATM    7  C   LIG     1      -2.655  -0.158   0.274  1.00  0.00     0.198 C 
BRANCH   7   8
HETATM    8  O   LIG     1      -3.374   0.972  -0.186  1.00  0.00    -0.398 OA
HETATM    9  H   LIG     1      -2.919   1.765   0.144  1.00  0.00     0.209 HD
ENDBRANCH   7   8
ENDBRANCH   4   7
BRANCH   6  10
HETATM   10  O   LIG     1       1.122   2.655   0.257  1.00  0.00    -0.369 OA
HETATM   11  H   LIG     1       1.488   2.503   1.145  1.00  0.00     0.212 HD
ENDBRANCH   6  10
BRANCH   2  12
HETATM   12  O   LIG     1      -0.887  -2.448  -0.339  1.00  0.00    -0.390 OA
HETATM   13  H   LIG     1      -0.851  -2.361  -1.307  1.00  0.00     0.210 HD
ENDBRANCH   2  12
BRANCH   5  14
HETATM   14  O   LIG     1       2.861   0.541  -0.462  1.00  0.00    -0.388 OA
HETATM   15  H   LIG     1       2.716   0.499  -1.423  1.00  0.00     0.210 HD
ENDBRANCH   5  14
BRANCH   3  16
HETATM   16  O   LIG     1       1.862  -2.069   0.470  1.00  0.00    -0.390 OA
HETATM   17  H   LIG     1       1.497  -2.936   0.220  1.00  0.00     0.210 HD
ENDBRANCH   3  16
TORSDOF 6
