REMARK  6 active torsions:
REMARK  status: ('A' for Active; 'I' for Inactive)
REMARK    1  A    between atoms: O_2  and  C_8 
REMARK    2  A    between atoms: O_3  and  C_9 
REMARK    3  A    between atoms: O_4  and  C_10 
REMARK    4  A    between atoms: O_5  and  C_11 
REMARK    5  A    between atoms: C_7  and  C_8 
REMARK    6  A    between atoms: C_8  and  C_10 
ROOT
HETATM    1  O   LIG     1       0.093  -1.107   0.644  1.00  0.00    -0.301 OA
HETATM    2  O   LIG     1       1.992  -2.156  -0.138  1.00  0.00    -0.257 OA
HETATM    3  C   LIG     1      -0.340   0.262   0.785  1.00  0.00     0.222 A 
HETATM    4  C   LIG     1       0.821   1.026   0.289  1.00  0.00     0.114 A 
HETATM    5  C   LIG     1       1.808   0.227  -0.105  1.00  0.00     0.173 A 
HETATM    6  C   LIG     1       1.354  -1.148   0.111  1.00  0.00     0.320 A 
ENDROOT
BRANCH   3   7
HETATM    7  C   LIG     1      -1.606   0.459  -0.033  1.00  0.00     0.177 C 
BRANCH   7   8
HETATM    8  O   LIG     1      -1.344   0.089  -1.386  1.00  0.00    -0.390 OA
HETATM    9  H   LIG     1      -1.100  -0.852  -1.399  1.00  0.00     0.210 HD
ENDBRANCH   7   8
BRANCH   7  10
HETATM   10  C   LIG     1      -2.746  -0.408   0.486  1.00  0.00     0.198 C 
BRANCH  10  11
HETATM   11  O   LIG     1      -3.893  -0.204  -0.333  1.00  0.00    -0.398 OA
HETATM   12  H   LIG     1      -4.602  -0.764   0.026  1.00  0.00     0.209 HD
ENDBRANCH  10  11
ENDBRANCH   7  10
ENDBRANCH   3   7
BRANCH   4  13
HETATM   13  O   LIG     1       0.839   2.390   0.284  1.00  0.00    -0.359 OA
HETATM   14  H   LIG     1       0.004   2.696   0.678  1.00  0.00     0.217 HD
ENDBRANCH   4  13
BRANCH   5  15
HETATM   15  O   LIG     1       3.022   0.570  -0.606  1.00  0.00    -0.353 OA
HETATM   16  H   LIG     1       3.502  -0.257  -0.786  1.00  0.00     0.218 HD
ENDBRANCH   5  15
TORSDOF 6
