REMARK  6 active torsions:
REMARK  status: ('A' for Active; 'I' for Inactive)
REMARK    1  A    between atoms: C2_2  and  C3_3 
REMARK    2  A    between atoms: C2_2  and  S1_7 
REMARK    3  A    between atoms: C3_3  and  O2_5 
REMARK    4  A    between atoms: S1_7  and  C5_8 
REMARK    5  A    between atoms: C7_10  and  C17_22 
REMARK    6  A    between atoms: C20_25  and  O4_28 
ROOT
ATOM      1  C5  <0> d          -1.533   7.787   0.057  0.00  0.00     0.116 A 
ATOM      2  C6  <0> d          -0.129   7.713   0.043  0.00  0.00     0.092 A 
ATOM      3  C7  <0> d           0.485   6.441   0.031  0.00  0.00     0.011 A 
ATOM      4  C8  <0> d          -0.342   5.308   0.033  0.00  0.00     0.021 A 
ATOM      5  C9  <0> d          -1.733   5.477   0.047  0.00  0.00     0.121 A 
ATOM      6  N1  <0> d          -2.270   6.688   0.058  0.00  0.00    -0.235 NA
ATOM      7  C10 <0> d          -2.350   4.121   0.046  0.00  0.00     0.212 A 
ATOM      8  O3  <0> d          -3.537   3.869   0.055  0.00  0.00    -0.285 OA
ATOM      9  C11 <0> d          -1.242   3.140   0.030  0.00  0.00     0.028 A 
ATOM     10  C12 <0> d          -0.033   3.857   0.023  0.00  0.00    -0.008 A 
ATOM     11  C13 <0> d           1.172   3.166   0.007  0.00  0.00     0.013 A 
ATOM     12  C14 <0> d           1.176   1.780   0.000  0.00  0.00     0.001 A 
ATOM     13  C15 <0> d          -0.013   1.076   0.008  0.00  0.00     0.001 A 
ATOM     14  C16 <0> d          -1.223   1.749   0.017  0.00  0.00     0.016 A 
ATOM     15  C24 <0> d           0.664   8.906   0.042  0.00  0.00     0.103 C 
ATOM     16  N2  <0> d           1.293   9.851   0.042  0.00  0.00    -0.191 NA
ENDROOT
BRANCH   1  17
ATOM     17  S1  <0> d          -2.320   9.363   0.072  0.00  0.00    -0.094 SA
BRANCH  17  18
ATOM     18  C2  <0> d          -4.055   8.848   0.086  0.00  0.00     0.149 C 
ATOM     19  C1  <0> d          -4.358   8.111   1.392  0.00  0.00     0.032 C 
BRANCH  18  20
ATOM     20  C3  <0> d          -4.941  10.062  -0.023  0.00  0.00     0.272 C 
ATOM     21  O1  <0> d          -4.506  11.154   0.257  0.00  0.00    -0.264 OA
BRANCH  20  22
ATOM     22  O2  <0> d          -6.213   9.930  -0.431  0.00  0.00    -0.326 OA
ATOM     23  C4  <0> d          -7.008  11.142  -0.513  0.00  0.00     0.213 C 
ENDBRANCH  20  22
ENDBRANCH  18  20
ENDBRANCH  17  18
ENDBRANCH   1  17
BRANCH   3  24
ATOM     24  C17 <0> d           1.958   6.308   0.016  0.00  0.00    -0.023 A 
ATOM     25  C22 <0> d           2.691   6.759  -1.083  0.00  0.00     0.015 A 
ATOM     26  C21 <0> d           4.063   6.634  -1.094  0.00  0.00     0.037 A 
ATOM     27  C20 <0> d           4.718   6.059  -0.012  0.00  0.00     0.068 A 
ATOM     28  C19 <0> d           3.992   5.610   1.085  0.00  0.00     0.037 A 
ATOM     29  C18 <0> d           2.620   5.736   1.104  0.00  0.00     0.015 A 
BRANCH  27  30
ATOM     30  O4  <0> d           6.070   5.937  -0.025  0.00  0.00    -0.356 OA
ATOM     31  C23 <0> d           6.679   5.337   1.120  0.00  0.00     0.210 C 
ENDBRANCH  27  30
ENDBRANCH   3  24
TORSDOF 6
