REMARK  7 active torsions:
REMARK  status: ('A' for Active; 'I' for Inactive)
REMARK    1  A    between atoms: C4_4  and  N1_7 
REMARK    2  A    between atoms: C7_8  and  C10_12 
REMARK    3  A    between atoms: C15_17  and  O1_18 
REMARK    4  A    between atoms: O1_18  and  C16_19 
REMARK    5  A    between atoms: C16_19  and  C17_20 
REMARK       I    between atoms: C17_20  and  N3_22 
REMARK    6  A    between atoms: N3_22  and  N4_23 
REMARK    7  A    between atoms: C18_24  and  C19_25 
ROOT
ATOM      1  C16 <0> d           1.573   3.591   1.443  0.00  0.00     0.280 C 
ENDROOT
BRANCH   1   2
ATOM      2  O1  <0> d           0.382   3.225   2.142  0.00  0.00    -0.341 OA
BRANCH   2   3
ATOM      3  C15 <0> d           0.420   2.079   2.869  0.00  0.00     0.082 A 
ATOM      4  C10 <0> d          -0.710   1.659   3.579  0.00  0.00     0.026 A 
ATOM      5  C11 <0> d          -0.660   0.481   4.324  0.00  0.00     0.016 A 
ATOM      6  C12 <0> d           0.501  -0.264   4.356  0.00  0.00     0.001 A 
ATOM      7  C13 <0> d           1.617   0.155   3.652  0.00  0.00     0.003 A 
ATOM      8  C14 <0> d           1.577   1.318   2.907  0.00  0.00     0.038 A 
BRANCH   4   9
ATOM      9  C7  <0> d          -1.952   2.461   3.541  0.00  0.00     0.073 A 
ATOM     10  N1  <0> d          -2.715   2.824   4.614  0.00  0.00    -0.234 N 
ATOM     11  N2  <0> d          -3.794   3.578   4.133  0.00  0.00    -0.179 NA
ATOM     12  C9  <0> d          -3.696   3.660   2.830  0.00  0.00     0.141 A 
ATOM     13  C8  <0> d          -2.553   2.972   2.424  0.00  0.00     0.053 A 
BRANCH  10  14
ATOM     14  C4  <0> d          -2.463   2.503   5.954  0.00  0.00     0.059 A 
ATOM     15  C3  <0> d          -1.174   2.600   6.462  0.00  0.00     0.031 A 
ATOM     16  C2  <0> d          -0.928   2.284   7.783  0.00  0.00     0.002 A 
ATOM     17  C1  <0> d          -1.965   1.871   8.601  0.00  0.00     0.000 A 
ATOM     18  C6  <0> d          -3.249   1.774   8.098  0.00  0.00     0.002 A 
ATOM     19  C5  <0> d          -3.502   2.094   6.779  0.00  0.00     0.031 A 
ENDBRANCH  10  14
ENDBRANCH   4   9
ENDBRANCH   2   3
ENDBRANCH   1   2
BRANCH   1  20
ATOM     20  C17 <0> d           1.343   4.880   0.697  0.00  0.00     0.261 C 
ATOM     21  O2  <0> d           0.264   5.432   0.758  0.00  0.00    -0.269 OA
ATOM     22  N3  <0> d           2.336   5.420  -0.038  0.00  0.00    -0.246 N 
ATOM     23  H14 <0> d           3.198   4.979  -0.086  0.00  0.00     0.192 HD
BRANCH  22  24
ATOM     24  N4  <0> d           2.122   6.618  -0.731  0.00  0.00    -0.184 NA
ATOM     25  C18 <0> d           3.078   7.138  -1.439  0.00  0.00     0.156 C 
BRANCH  25  26
ATOM     26  C19 <0> d           2.853   8.399  -2.168  0.00  0.00     0.056 A 
ATOM     27  C27 <0> d           1.548   9.082  -2.105  0.00  0.00     0.198 A 
ATOM     28  C26 <0> d           1.419  10.338  -2.869  0.00  0.00     0.050 A 
ATOM     29  O4  <0> d           0.621   8.632  -1.454  0.00  0.00    -0.286 OA
ATOM     30  C21 <0> d           2.530  10.796  -3.596  0.00  0.00     0.089 A 
ATOM     31  C25 <0> d           0.227  11.062  -2.876  0.00  0.00     0.042 A 
ATOM     32  O3  <0> d           3.682  10.097  -3.590  0.00  0.00    -0.321 OA
ATOM     33  C22 <0> d           2.425  11.978  -4.321  0.00  0.00     0.040 A 
ATOM     34  C20 <0> d           3.848   8.960  -2.911  0.00  0.00     0.159 A 
ATOM     35  C23 <0> d           1.242  12.685  -4.320  0.00  0.00     0.026 A 
ATOM     36  C24 <0> d           0.145  12.231  -3.600  0.00  0.00     0.035 A 
ATOM     37 Cl1  <0> d          -1.335  13.140  -3.614  0.00  0.00    -0.084 Cl
ENDBRANCH  25  26
ENDBRANCH  22  24
ENDBRANCH   1  20
TORSDOF 7
