REMARK  7 active torsions:
REMARK  status: ('A' for Active; 'I' for Inactive)
REMARK    1  A    between atoms: C4_4  and  C7_7 
REMARK       I    between atoms: C7_7  and  N1_9 
REMARK    2  A    between atoms: N1_9  and  C8_10 
REMARK    3  A    between atoms: C8_10  and  N2_12 
REMARK    4  A    between atoms: N2_12  and  C9_13 
REMARK    5  A    between atoms: C14_18  and  N3_19 
REMARK    6  A    between atoms: N3_19  and  C15_20 
REMARK       I    between atoms: N4_22  and  C16_23 
REMARK    7  A    between atoms: C16_23  and  C17_25 
ROOT
ATOM      1  C9  <0> d           3.602   1.666   0.123  0.00  0.00     0.061 A 
ATOM      2  C10 <0> d           3.644   3.052   0.123  0.00  0.00     0.032 A 
ATOM      3  C11 <0> d           4.813   3.708  -0.215  0.00  0.00     0.002 A 
ATOM      4  C12 <0> d           5.940   2.987  -0.564  0.00  0.00     0.002 A 
ATOM      5  C13 <0> d           5.905   1.605  -0.572  0.00  0.00     0.032 A 
ATOM      6  C14 <0> d           4.738   0.938  -0.230  0.00  0.00     0.061 A 
ENDROOT
BRANCH   1   7
ATOM      7  N2  <0> d           2.420   0.999   0.469  0.00  0.00    -0.331 N 
ATOM      8  H7  <0> d           2.448   0.255   1.091  0.00  0.00     0.168 HD
BRANCH   7   9
ATOM      9  C8  <0> d           1.245   1.390  -0.061  0.00  0.00     0.179 C 
ATOM     10  S1  <0> d           1.178   2.774  -1.067  0.00  0.00    -0.040 SA
BRANCH   9  11
ATOM     11  N1  <0> d           0.122   0.693   0.201  0.00  0.00    -0.299 N 
ATOM     12  C7  <0> d          -1.053   1.081  -0.335  0.00  0.00     0.257 C 
ATOM     13  O1  <0> d          -1.100   2.063  -1.049  0.00  0.00    -0.267 OA
ATOM     14  H6  <0> d           0.160  -0.091   0.770  0.00  0.00     0.171 HD
BRANCH  12  15
ATOM     15  C4  <0> d          -2.283   0.313  -0.053  0.00  0.00     0.032 A 
ATOM     16  C3  <0> d          -3.501   0.712  -0.605  0.00  0.00     0.017 A 
ATOM     17  C2  <0> d          -4.646  -0.010  -0.338  0.00  0.00     0.001 A 
ATOM     18  C1  <0> d          -4.588  -1.128   0.475  0.00  0.00     0.000 A 
ATOM     19  C6  <0> d          -3.384  -1.530   1.025  0.00  0.00     0.001 A 
ATOM     20  C5  <0> d          -2.231  -0.820   0.763  0.00  0.00     0.017 A 
ENDBRANCH  12  15
ENDBRANCH   9  11
ENDBRANCH   7   9
ENDBRANCH   1   7
BRANCH   6  21
ATOM     21  N3  <0> d           4.701  -0.462  -0.237  0.00  0.00    -0.331 N 
ATOM     22  H12 <0> d           3.960  -0.925  -0.659  0.00  0.00     0.168 HD
BRANCH  21  23
ATOM     23  C15 <0> d           5.695  -1.166   0.341  0.00  0.00     0.179 C 
ATOM     24  S2  <0> d           7.060  -0.353   0.978  0.00  0.00    -0.040 SA
ATOM     25  N4  <0> d           5.613  -2.509   0.417  0.00  0.00    -0.299 N 
ATOM     26  C16 <0> d           6.607  -3.212   0.995  0.00  0.00     0.257 C 
ATOM     27  H13 <0> d           4.840  -2.969   0.056  0.00  0.00     0.171 HD
ATOM     28  O2  <0> d           7.576  -2.636   1.447  0.00  0.00    -0.267 OA
BRANCH  26  29
ATOM     29  C17 <0> d           6.518  -4.685   1.079  0.00  0.00     0.032 A 
ATOM     30  C22 <0> d           7.545  -5.417   1.677  0.00  0.00     0.017 A 
ATOM     31  C21 <0> d           7.455  -6.791   1.752  0.00  0.00     0.001 A 
ATOM     32  C20 <0> d           6.350  -7.445   1.236  0.00  0.00     0.000 A 
ATOM     33  C19 <0> d           5.328  -6.725   0.643  0.00  0.00     0.001 A 
ATOM     34  C18 <0> d           5.403  -5.350   0.565  0.00  0.00     0.017 A 
ENDBRANCH  26  29
ENDBRANCH  21  23
ENDBRANCH   6  21
TORSDOF 7
